30
Coordinates from ORCA-job Co2
  Co  5.35837959406873      5.44056411859881      4.77743783793180
  C   4.79779932957751      7.25350354220434      5.76502050094769
  C   5.86669213067603      6.57565821580050      6.39233259251333
  C   6.96358748274512      6.62714428370901      5.52629529766740
  C   6.69350429414700      7.64093110153170      4.41516038303002
  C   6.41332538245110      6.69106272447884      3.27633386403797
  C   5.21338552929622      6.53094373336632      2.65249660471732
  C   5.40118679966420      8.33086632049267      4.89120998364473
  C   3.78523287064232      4.19772426851591      5.39332371254517
  C   5.00813694307793      3.82107905319931      6.02955012271907
  C   5.93393060394504      3.40544893872502      5.02808678547551
  C   5.31388158651129      3.59274499427280      3.78330533365895
  C   3.97484445429358      4.08306019140472      4.00547632455672
  H   3.80648770140892      7.32352231741496      6.18807145892550
  H   5.82574534372540      6.02618783118041      7.31871258340914
  H   7.92405274684803      6.16314260044383      5.69056825158605
  H   7.52001274932833      8.31733161174099      4.20229762760685
  H   7.26884763964836      6.13564275078891      2.90648512263831
  C   5.04751442594145      5.72493202464941      1.40352274184328
  H   4.76784885753610      8.68000952366275      4.07931864481977
  H   5.63951071234806      9.20101620442491      5.50990752672847
  H   2.90077730533706      4.56005099542328      5.89084398993362
  H   5.18735761236900      3.81897459785702      7.09173543192829
  H   6.94397182719183      3.07004533894966      5.19597482389441
  H   5.76371965402292      3.41299621687894      2.82176775641961
  H   3.24818489741280      4.31133999834878      3.24505659098246
  H   4.38061196476458      7.17224790424614      2.90603848114225
  H   4.12423460858680      5.14649711051502      1.39442848140855
  H   5.89266922034866      5.06252081339064      1.22310782899296
  H   4.98197573208519      6.42534067378397      0.56471331429451
