30
Coordinates from ORCA-job Ir1
  Ir  5.33941958831307      5.41652570298381      4.71568628158383
  C   4.82461954527607      7.35870502461981      5.68583703792318
  C   5.88586157870657      6.67886694528125      6.36089390230508
  C   7.00744638862967      6.74509219489060      5.50822959821094
  C   6.75795242618714      7.77470577484850      4.40043039500915
  C   6.44654610097836      6.77942460809798      3.30656176374529
  C   5.18540308507153      6.58733828806394      2.75283416344995
  C   5.46860058376018      8.46716987290934      4.87357268727782
  C   3.72613412122939      3.98965656058777      5.35276972364171
  C   4.94700057817290      3.65737426797276      6.02196231916819
  C   5.90633462346061      3.24501077490807      5.03993562304563
  C   5.30575070696230      3.38948778007659      3.76833202017101
  C   3.94926162146157      3.85211604773896      3.96020412496448
  H   3.83790387212679      7.45815967254168      6.11420734123548
  H   5.84274154394661      6.16803748041273      7.31043594473916
  H   7.96874820784995      6.29378193317987      5.70042065919941
  H   7.58574741082834      8.44363878689671      4.17698823610805
  H   7.29443029872296      6.25810354882421      2.87775179079207
  C   5.00130033918752      5.78494823205177      1.49649338414668
  H   4.86383717992556      8.85478834089348      4.05710460742340
  H   5.70428675019530      9.30675295039796      5.53238069620816
  H   2.81369950092141      4.31707336024321      5.82300419956911
  H   5.10327435911629      3.67292485498541      7.08816689143259
  H   6.91475775808715      2.91991880104842      5.23518727295811
  H   5.76765204765787      3.16711277057573      2.82148931831429
  H   3.22424631313441      4.02887560730589      3.18440651978883
  H   4.41121998896683      7.31830556498919      2.93381523857481
  H   4.02529147568194      5.30474447351169      1.45095350478395
  H   5.77738623737395      5.03111475155445      1.37108509173582
  H   5.06055576806743      6.47277502760789      0.64743966249359
