8
Coordinates from ORCA-job orca2
  Si  -1.63706468148864      0.80725296109825     -0.35208942373382
  Si  -2.08940556405067     -1.18897650525424      1.00562887487769
  H   -2.28618376413242      2.00045872995902      0.24270476806764
  H   -2.11853278291142      0.60127453454204     -1.73942311170447
  Si  -0.01463125903876     -0.60825629368216      0.78759552696301
  Si  0.72281315092962      1.17009456290760     -0.41520064192814
  H   1.27315360379739      2.35050572446543      0.28836735832290
  H   1.43160129689491      0.93781628596404     -1.69382335086480
