30
Coordinates from ORCA-job rahch3endoprod
  Rh  5.39155283096838      5.40052361051015      4.62682415426469
  C   4.92113810126825      7.34171570122152      5.70039808597756
  C   6.00446581908530      6.61049928961719      6.26735685084588
  C   7.07659430543483      6.66840211849164      5.35111905568201
  C   6.79310061053693      7.72570752116818      4.28461026840985
  C   6.41289592548870      6.75452289227251      3.19125601974021
  C   5.10640389679294      6.56827522645104      2.76355138694513
  C   5.53942349154962      8.42092339021027      4.83007220599438
  C   3.75702270616348      3.98954368789777      5.15651238692652
  C   4.94555720734557      3.66808961880172      5.88881196705307
  C   5.96031035500799      3.26185774722790      4.95868235454116
  C   5.43394030097978      3.41625103231299      3.65863893520835
  C   4.06283619301659      3.86853180130028      3.78115675625951
  C   3.57756721088650      7.51634286437565      6.32925517307332
  H   5.99214196840162      6.05015151100564      7.19179509606717
  H   8.03645550050510      6.18635823693395      5.47153795934204
  H   7.62355194756656      8.38460644930368      4.03662439011259
  H   7.22362974323323      6.20911673071427      2.72177735261206
  H   4.91951711872422      5.87118733439744      1.95628980167691
  H   4.88515131102122      8.81011815523436      4.05042999685059
  H   5.81694310401083      9.26288361496322      5.47300132804441
  H   2.81596242960591      4.30743516201554      5.57696987062089
  H   5.04248389060790      3.67367372700974      6.96382024529700
  H   6.96119202876886      2.94731958037867      5.21060527129894
  H   5.95202229405837      3.22334620988755      2.73184803788065
  H   3.38674733034648      4.05692717426453      2.96195142128646
  H   4.32452019312105      7.28944109051756      2.95354778899186
  H   2.80088494770439      7.61585108447227      5.56872649948151
  H   3.57121848075088      8.43711743666581      6.92502055259259
  H   3.32742875704831      6.67879000037668      6.98072878692251
