6
Coordinates from ORCA-job Si2H4
  Si  -3.69396445351652      1.05264984012980     -0.25068481211115
  Si  -1.60100090326682      1.09346338134136      0.25068904773494
  H   -4.28297202023119     -0.15626066713246     -0.86084723718706
  H   -4.38144842272989      2.29730916829809     -0.64934309876592
  H   -0.91343002895403     -0.15123464306384      0.64907762674861
  H   -1.01207417130153      2.30228292042705      0.86110847358058
