7
Coordinates from ORCA-job orca3
  Si  -3.05680603809911      0.89040303698798     -0.10697244267269
  Si  -1.55537412190597      1.05225451770440     -1.77299579296197
  H   -3.13848539774521      1.46658268527446      1.25965132344584
  H   -4.24004701003526      0.00954463290527     -0.28831526554448
  Si  -0.53850756814866      0.72853474999276      0.20663992889778
  H   0.53324293922024     -0.29604242062062      0.30691755472489
  H   -0.72322280328601      1.31291279775574      1.55981469411062
