28
Coordinates from ORCA-job 2Si2Ph
  Si  -3.70193634273374      1.51295520659840      0.15345331075030
  Si  -1.79162051755742      2.30799438190073     -0.42618444936967
  H   -3.97363638741029      4.32912700405137      1.15498235247957
  C   -4.89791467009054      3.80638761221836      1.37331938627694
  C   -5.04391256591748      2.45879370882458      1.00786859849388
  C   -6.26347901817284      1.83190179765716      1.31663030330449
  H   -6.41496446853609      0.79171709238109      1.05060977921075
  C   -7.28937472178178      2.50884998147976      1.95768523456594
  H   -8.22516162631289      2.01800891986499      2.19197112463302
  C   -7.11702922599173      3.84618489195763      2.30891091904833
  C   -5.91570025189617      4.49407141951915      2.01388376995522
  H   -5.78125547988280      5.53605372644581      2.28754414503697
  O   -8.15247045753591      4.47412602228361      2.93926898450564
  H   -7.89891488539183      5.38696530473449      3.12261773402765
  H   -4.06037452168723      0.10651218612762     -0.13680942130392
  H   -1.50090947974057     -0.50865599511057     -1.42582466385532
  C   -0.57777154359939      0.01718926052806     -1.64165475323827
  C   -0.44244249186447      1.36862926695894     -1.27582926285615
  C   0.77186944451098      2.00264898498138     -1.57847523703257
  H   0.91810739707501      3.04396826060481     -1.31412267746558
  C   1.80361302166077      1.32520317327052     -2.21460241866808
  H   2.73466493896579      1.83623059117396     -2.43929154806670
  C   1.64133828811596     -0.01364181550257     -2.56449500368691
  C   0.44244360531787     -0.66875839401603     -2.27524022003944
  H   0.33111103579776     -1.70888825138600     -2.55337035174021
  O   2.61697019657033     -0.73453826626386     -3.19050470020242
  H   3.38512435203782     -0.16694321165548     -3.32826623538843
  H   -1.43765362394906      3.71559714037206     -0.13380469937503
