47
Coordinates from ORCA-job 3Si4Phy
  Si  -1.88723453204145     -0.57741550652775     -0.17126009740661
  Si  1.05638345431160     -0.03684090506423      0.26785417576298
  Si  -0.16611368996498     -1.94212374824528      0.15451019761374
  H   3.62352953080531      3.72456037503470     -1.93386955486560
  C   2.76264421145382      3.05605829056056     -2.00694522422211
  C   2.51669477917308      2.12762172165771     -0.99230540215789
  H   3.19781696597889      2.07758753533774     -0.14076491647293
  C   1.41340035608128      1.24865472521779     -1.06494299533792
  C   0.58850003879826      1.31420256464366     -2.20838925627618
  H   -0.24394071299614      0.61209559228014     -2.30413904105884
  C   0.82479406530955      2.24999448794327     -3.21503963560732
  H   0.16682800898466      2.28976685700094     -4.08589101431723
  C   1.91162850517635      3.12623817170173     -3.11460898791640
  H   2.10360603921425      3.85397231074718     -3.90646996138390
  H   3.92321244047995     -1.59361112135944      4.07714065642062
  C   3.50657641349279     -0.71769251548443      3.57495900356292
  C   2.72623090879505     -0.87907780469084      2.42848676559012
  H   2.52449138891805     -1.88564345193194      2.05162279003672
  C   2.19049642795233      0.23710381963023      1.74877956636791
  C   2.43635767315369      1.52082151935543      2.28685074503394
  H   2.01194931876156      2.40279390465294      1.80026463671611
  C   3.19881813742400      1.68136055025861      3.44646952676799
  H   3.36903522101047      2.68155002655819      3.85154099354828
  C   3.74340276836623      0.56313273681179      4.08705675706239
  H   4.34488904594094      0.68892400250600      4.99009537033915
  H   -4.62676843298543      0.61765210243600      0.25095060203118
  C   -4.77122415537199     -0.40829021930049     -0.09753386775573
  C   -6.06751919801801     -0.90556643262555     -0.25748959449667
  H   -6.92636145946092     -0.26622683679468     -0.03961733039475
  C   -6.26502671483666     -2.22171653888923     -0.68860902567894
  H   -7.27827850718301     -2.61098203961868     -0.81177823819017
  C   -5.16134974431490     -3.04021478778715     -0.96014424435816
  H   -5.31290076315850     -4.06861829414223     -1.29610759486620
  C   -3.86743191428651     -2.54167018304237     -0.80465936809770
  H   -3.00897978206933     -3.18407200301109     -1.02156576161360
  C   -3.64638657552606     -1.21635502554596     -0.37084569617853
  H   -0.73045602443054      1.30621514642200      1.87299312325978
  C   -1.14231458090243      1.92024531617409      1.06559713431092
  C   -0.93039437388166      3.30371041152515      1.08303771699708
  H   -0.34036344044930      3.75308531900985      1.88506291010686
  C   -1.47788721923009      4.10500819255579      0.07890586151110
  H   -1.30026106461822      5.18251121548600      0.07776258300198
  C   -2.26774346474858      3.52268513272445     -0.92113740722342
  H   -2.70137965203034      4.14717544701614     -1.70564175879124
  C   -2.48719576121109      2.14374303018896     -0.93084390438518
  H   -3.08887525678826      1.70386356749528     -1.73113785258210
  C   -1.90230867907765      1.30527334112898      0.04333661559352
