51
Coordinates from ORCA-job 7Si4Phy
  Si  -1.85449234056086      1.53767543687403      0.27186231249858
  Si  -2.99851012483432     -0.73544331348382     -0.27300411786929
  Si  -3.61629687214312      0.19227742857617      1.79120388731332
  Si  -1.68707896217515      1.48605815756387      2.69722210369778
  Si  -1.28637831372207     -0.75342607053238      1.38558878590990
  Si  -0.37086715201383     -0.51188358151706      3.56025055071391
  Si  1.07376951816307     -0.19401737301102      1.75437436731216
  H   -3.18757231513923      2.44563664135196     -2.21756449527239
  C   -3.54445481160831      3.11596286905388     -1.43067471764135
  C   -4.45380112179915      4.12693467765714     -1.74896840549274
  H   -4.80625003015693      4.23706852941203     -2.77728933371607
  C   -4.91384311013362      4.99689492957199     -0.75272948937144
  H   -5.62619518555969      5.78671108657886     -1.00157692419807
  C   -4.46072520809829      4.84858646095107      0.56127596600821
  H   -4.81403123552142      5.52469346428858      1.34326745513887
  C   -3.55471969989055      3.83045338087226      0.87776381113490
  H   -3.21095344876259      3.71775559937513      1.91140327751692
  C   -3.07788690017591      2.95264936642831     -0.11018792598132
  H   -0.47103740811725     -0.51774802970692     -1.59517616709015
  C   -0.11271992019500      0.48153129914538     -1.85667324086997
  C   0.81857190032116      0.62996006913608     -2.88912844903025
  H   1.16821551533535     -0.25046756262900     -3.43395617909039
  C   1.29442210733125      1.90029359155135     -3.22870501188338
  H   2.02833380864506      2.01612211350279     -4.02928490558131
  C   0.82265354090065      3.02205803004375     -2.53993796293726
  H   1.19493888994774      4.01761907099680     -2.79135461482177
  C   -0.12589025335666      2.87574864360908     -1.52421133774055
  H   -0.49611438455604      3.76216202484444     -1.00385279376212
  C   -0.59932845920474      1.60016536665283     -1.15987838050280
  H   2.97763695766908     -3.22234098483217     -1.84351792144295
  C   2.81970274590950     -3.07627108780424     -0.77241854386728
  C   2.18237273833871     -1.92007220545193     -0.31587902760183
  H   1.84130069946155     -1.17742433524944     -1.03929608207598
  C   1.96139119269330     -1.71057543482653      1.06114938979902
  C   2.39220742904262     -2.70548728482858      1.96299388778450
  H   2.22206373098720     -2.57386752276880      3.03505871688483
  C   3.03483187920611     -3.86027406199409      1.50774039238785
  H   3.36556454912646     -4.61651906185862      2.22308541970392
  C   3.24967313557909     -4.04741194008071      0.13865098624615
  H   3.74753067115966     -4.95138487855021     -0.21902046326464
  H   1.70261357899610      4.77758189116877      1.78640236346389
  C   2.01359062280277      3.84313801883645      1.31450908447013
  C   1.45007206478171      2.63530890748432      1.72666644661587
  H   0.70658915978714      2.63989038152787      2.53030489779691
  C   1.82746378136786      1.41352083797256      1.13240163943378
  C   2.81382592102745      1.44021497789475      0.12655052629668
  H   3.14791930848910      0.51076592831650     -0.33591405866773
  C   3.38234758930858      2.64858106735654     -0.28541258255529
  H   4.14025447508020      2.64917197557058     -1.07160829411517
  C   2.98011436772269      3.85139125422265      0.30196297566001
  H   3.42148537854356      4.79543125073612     -0.02539781734441
